opendss_networks/LV17_279bus/Switches.dss
new line.Switch_179_CLOSED lineCode=ughv_400al_triplex_ug_4w_bundled bus1=B3093 bus2=B1439 length=0.00100000000000 units=km switch=y phases=4
new line.Switch_552_CLOSED lineCode=ughv_400al_triplex_ug_4w_bundled bus1=B2057 bus2=B2029 length=0.00100000000000 units=km switch=y phases=4
! new line.Switch_762_OPEN lineCode=ughv_400al_triplex_ug_4w_bundled bus1=B2324 bus2=B2111 length=0.00100000000000 units=km switch=y phases=4
new line.Switch_953_CLOSED lineCode=ughv_400al_triplex_ug_4w_bundled bus1=B106 bus2=B2096 length=0.00100000000000 units=km switch=y phases=4
! new line.Switch_1550_OPEN lineCode=ughv_400al_triplex_ug_4w_bundled bus1=B1400 bus2=B638 length=0.00100000000000 units=km switch=y phases=4
new line.Switch_1633_CLOSED lineCode=ughv_400al_triplex_ug_4w_bundled bus1=B1199 bus2=B1622 length=0.00100000000000 units=km switch=y phases=4
! new line.Switch_1934_OPEN lineCode=ughv_400al_triplex_ug_4w_bundled bus1=B3277 bus2=B1192 length=0.00100000000000 units=km switch=y phases=4
new line.Switch_1988_CLOSED lineCode=ughv_400al_triplex_ug_4w_bundled bus1=B1405 bus2=B3077 length=0.00100000000000 units=km switch=y phases=4
new line.Switch_2124_CLOSED lineCode=ughv_400al_triplex_ug_4w_bundled bus1=B616 bus2=B1186 length=0.00100000000000 units=km switch=y phases=4
! new line.Switch_2627_OPEN lineCode=ughv_400al_triplex_ug_4w_bundled bus1=B3335 bus2=B983 length=0.00100000000000 units=km switch=y phases=4
new line.Switch_3502_CLOSED lineCode=ughv_400al_triplex_ug_4w_bundled bus1=B1125 bus2=B2384 length=0.00100000000000 units=km switch=y phases=4
! new line.Switch_3598_OPEN lineCode=ughv_400al_triplex_ug_4w_bundled bus1=B1698 bus2=B790 length=0.00100000000000 units=km switch=y phases=4
! new line.Switch_3700_OPEN lineCode=ughv_400al_triplex_ug_4w_bundled bus1=B1419 bus2=B2277 length=0.00100000000000 units=km switch=y phases=4
new line.Switch_3728_CLOSED lineCode=ughv_400al_triplex_ug_4w_bundled bus1=B666 bus2=B2377 length=0.00100000000000 units=km switch=y phases=4
! new line.Switch_4327_OPEN lineCode=ughv_400al_triplex_ug_4w_bundled bus1=B2213 bus2=B1137 length=0.00100000000000 units=km switch=y phases=4
new line.Switch_4575_CLOSED lineCode=ughv_400al_triplex_ug_4w_bundled bus1=B747 bus2=B2247 length=0.00100000000000 units=km switch=y phases=4
